FoamFile
{
    version     2.0;
    format      ascii;
    class       dictionary;
    location    "constant";
    object      thermophysicalProperties;
}
//-----------------------------------------------------------------------------//

thermoType
{
    type            heRhoThermo;
    mixture         pureMixture;
    transport       const;
    thermo          hConst;
    equationOfState perfectGas;
    specie          specie;
    energy          sensibleInternalEnergy;
}

mixture // air at room temperature (293 K)
{
    specie
    {
        molWeight   28.9;
    }
    thermodynamics
    {
        Cp          1005;
        Hf          2.544e+06;
    }
    transport
    {
        mu          0.416;
        Pr          0.71;
    }
}

//-----------------------------------TD-2100-----------------------------------//
