FoamFile
{
    version     2.0;
    format      ascii;
    class       dictionary;
    object      controlDict;
}
// * * * * * * * * * * * * * * * * * * * * * * * * * * * * * * * * * * * * * //

application     rhoPimpleFoam;

startFrom       latestTime ;

startTime       0;

stopAt          endTime;

endTime         1.0;

deltaT          0.0001;

writeControl    timeStep;

writeInterval   1000;

purgeWrite      0;

writeFormat     ascii;

writePrecision   10;

writeCompression off;

timeFormat      general;

timePrecision   6;

runTimeModifiable true;

functions
{

}

// ************************************************************************* //
