FoamFile
{
    format      ascii;
    class       dictionary;
    object      fvConstraints;
}
// * * * * * * * * * * * * * * * * * * * * * * * * * * * * * * * * * * * * * //

limitp
{
    type       limitPressure;

    minFactor  0.1;
    maxFactor  2;
}

limitT
{
    type       limitTemperature;
    min        101;
    max        1000;
    selectionMode all;
}

// ************************************************************************* //
