FoamFile
{
    version     2.0;
    format      ascii;
    class       volScalarField;
    location    "0";
    object      nut;
}
// * * * * * * * * * * * * * * * * * * * * * * * * * * * * * * * * * * * * * //

dimensions      [0 2 -1 0 0 0 0];

internalField   uniform 0.000187821;

boundaryField
{
    inflow
    {
        type            fixedValue;
        value           uniform 0.000187821;
    }
    back
    {
        type            symmetry;
    }
    outflow
    {
        type            zeroGradient;
    }
    airfoilt
    {
        type            nutkWallFunction;
        Cmu             0.09;
        kappa           0.41;
        E               9.8;
        value           uniform 0.000187821;
    }
    front
    {
        type            symmetry;
    }
    airfoilb
    {
        type            nutkWallFunction;
        Cmu             0.09;
        kappa           0.41;
        E               9.8;
        value           uniform 0.000187821;
    }
}


// ************************************************************************* //
