FoamFile
{
    version     2.0;
    format      ascii;
    class       volVectorField;
    location    "0";
    object      U;
}
// * * * * * * * * * * * * * * * * * * * * * * * * * * * * * * * * * * * * * //

dimensions      [0 1 -1 0 0 0 0];

internalField   uniform (34.079 0 0);

boundaryField
{
    inflow
    {
        type            freestreamVelocity;
        freestreamValue uniform (34.079 0 0);
        value           uniform (34.079 0 0);
    }
    back
    {
        type            symmetry;
    }
    outflow
    {
        type            inletOutlet;
        inletValue      uniform (34.079 0 0);
        value           uniform (34.079 0 0);
    }
    airfoilt
    {
        type            noSlip;
    }
    front
    {
        type            symmetry;
    }
    airfoilb
    {
        type            noSlip;
    }
}


// ************************************************************************* //
